#\#CIF_2.0

##########################################################################
#               Crystallographic Information Format file
#               Produced by PyCifRW module
#
#  This is a CIF file.  CIF has been adopted by the International
#  Union of Crystallography as the standard for data archiving and
#  transmission.
#
#  For information on this file format, follow the CIF links at
#  http://www.iucr.org
##########################################################################

data_structure_0

_chemical_formula_structural            'Cu2'
_chemical_formula_sum                   Cu2
_cell_length_a                          3.540000
_cell_length_b                          3.540000
_cell_length_c                          3.540000
_cell_angle_alpha                       90.000000
_cell_angle_beta                        90.000000
_cell_angle_gamma                       90.000000
_cell_volume                            44.361864
_space_group_name_Hall                  'P 1'
_space_group_IT_number                  1
loop_
  _space_group_symop_operation_xyz
         '+x,+y,+z'
loop_
  _atom_site_label
  _atom_site_type_symbol
  _atom_site_fract_x
  _atom_site_fract_y
  _atom_site_fract_z
  _atom_site_Wyckoff_symbol
  _atom_site_occupancy
         Cu0       Cu+0      0.000000  0.000000  0.000000  a         1.000000  
         Cu0       Cu+0      0.500000  0.500000  0.500000  a         1.000000 
loop_
  _atom_type_symbol
  _atom_type_oxidation_number
         Cu        0 
